REMARK VINA RESULT:      -4.9      1.248      2.061
REMARK  Name = 1bcd_ligand
REMARK  2 active torsions:
REMARK  status: ('A' for Active; 'I' for Inactive)
REMARK    1  A    between atoms: C_1  and  S_5
REMARK    2  A    between atoms: S_5  and  N_6
REMARK                            x       y       z     vdW  Elec       q    Type
REMARK                         _______ _______ _______ _____ _____    ______ ____
ROOT
ATOM      1  S   FMS A   1      -4.889   1.864  15.988  0.00  0.00    +0.135 S 
ATOM      2  O1  FMS A   1      -4.193   3.135  15.863  0.00  0.00    -0.147 OA
ATOM      3  O2  FMS A   1      -5.406   1.333  14.722  0.00  0.00    -0.147 OA
ENDROOT
BRANCH   1   4
ATOM      4  C   FMS A   1      -6.308   2.054  17.002  0.00  0.00    +0.538 C 
ATOM      5  F1  FMS A   1      -6.760   3.247  16.881  0.00  0.00    -0.149 F 
ATOM      6  F2  FMS A   1      -5.838   2.004  18.285  0.00  0.00    -0.149 F 
ATOM      7  F3  FMS A   1      -7.169   1.130  16.730  0.00  0.00    -0.149 F 
ENDBRANCH   1   4
BRANCH   1   8
ATOM      8  N   FMS A   1      -3.815   0.844  16.639  0.00  0.00    -0.258 NA
ATOM      9  H1  FMS A   1      -3.659  -0.051  16.223  0.00  0.00    +0.163 HD
ATOM     10  H2  FMS A   1      -3.306   1.110  17.458  0.00  0.00    +0.163 HD
ENDBRANCH   1   8
TORSDOF 2
