REMARK VINA RESULT:      -4.8      1.182      1.969
REMARK  Name = 3kgp_ligand
REMARK  3 active torsions:
REMARK  status: ('A' for Active; 'I' for Inactive)
REMARK    1  A    between atoms: C_1  and  C1_3
REMARK    2  A    between atoms: N1_4  and  C7_10
REMARK    3  A    between atoms: C4_7  and  C7_10
REMARK                            x       y       z     vdW  Elec       q    Type
REMARK                         _______ _______ _______ _____ _____    ______ ____
ROOT
ATOM      1  C1  4AZ A   1     -28.726  86.608 -11.903  0.00  0.00    +0.003 A 
ATOM      2  C2  4AZ A   1     -29.190  87.781 -12.597  0.00  0.00    +0.009 A 
ATOM      3  C3  4AZ A   1     -30.163  88.611 -12.014  0.00  0.00    +0.005 A 
ATOM      4  C4  4AZ A   1     -30.687  88.297 -10.742  0.00  0.00    +0.004 A 
ATOM      5  C5  4AZ A   1     -30.234  87.150 -10.058  0.00  0.00    +0.005 A 
ATOM      6  C6  4AZ A   1     -29.264  86.313 -10.629  0.00  0.00    +0.009 A 
ENDROOT
BRANCH   1   7
ATOM      7  C   4AZ A   1     -27.806  85.845 -12.483  0.00  0.00    +0.058 C 
ATOM      8  O   4AZ A   1     -27.246  84.928 -11.971  0.00  0.00    -0.562 OA
ATOM      9  OXT 4AZ A   1     -27.270  85.870 -13.634  0.00  0.00    -0.562 OA
ENDBRANCH   1   7
BRANCH   4  10
ATOM     10  C7  4AZ A   1     -31.730  89.192 -10.113  0.00  0.00    +0.197 C 
BRANCH  10  11
ATOM     11  N1  4AZ A   1     -31.930  90.407 -10.926  0.00  0.00    +0.231 N 
ATOM     12  H1  4AZ A   1     -32.749  90.293 -11.504  0.00  0.00    +0.201 HD
ATOM     13  H2  4AZ A   1     -31.123  90.557 -11.512  0.00  0.00    +0.201 HD
ATOM     14  H3  4AZ A   1     -32.056  91.201 -10.318  0.00  0.00    +0.201 HD
ENDBRANCH  10  11
ENDBRANCH   4  10
TORSDOF 3
