REMARK VINA RESULT:      -7.1      2.263      3.186
REMARK  Name = 1ghz_ligand
REMARK  2 active torsions:
REMARK  status: ('A' for Active; 'I' for Inactive)
REMARK    1  A    between atoms: C1_1  and  C7_7
REMARK    2  A    between atoms: C8_12  and  C1'_13
REMARK                            x       y       z     vdW  Elec       q    Type
REMARK                         _______ _______ _______ _____ _____    ______ ____
ROOT
ATOM      1  C1  120 A   1      45.196  19.698  52.510  0.00  0.00    +0.009 A 
ATOM      2  C2  120 A   1      44.637  19.141  51.316  0.00  0.00    -0.019 A 
ATOM      3  C3  120 A   1      43.950  19.914  50.375  0.00  0.00    +0.011 A 
ATOM      4  C4  120 A   1      43.844  21.239  50.657  0.00  0.00    +0.076 A 
ATOM      5  C5  120 A   1      44.355  21.827  51.769  0.00  0.00    +0.021 A 
ATOM      6  C6  120 A   1      45.039  21.101  52.734  0.00  0.00    -0.007 A 
ATOM      7  N3  120 A   1      43.275  22.166  49.966  0.00  0.00    -0.257 N 
ATOM      8  N4  120 A   1      44.105  23.134  51.812  0.00  0.00    -0.326 NA
ATOM      9  C8  120 A   1      43.431  23.253  50.657  0.00  0.00    +0.121 C 
ATOM     10  H8  120 A   1      42.797  22.066  49.059  0.00  0.00    +0.226 HD
ENDROOT
BRANCH   9  11
ATOM     11  C1' 120 A   1      42.989  24.487  50.127  0.00  0.00    +0.084 C 
ATOM     12  C2' 120 A   1      41.855  25.089  50.644  0.00  0.00    +0.023 C 
ATOM     13  C3' 120 A   1      41.418  26.286  50.138  0.00  0.00    +0.015 C 
ATOM     14  C4' 120 A   1      42.086  26.926  49.113  0.00  0.00    +0.208 C 
ATOM     15  N5' 120 A   1      43.168  26.318  48.642  0.00  0.00    -0.213 N 
ATOM     16  C6' 120 A   1      43.685  25.160  49.055  0.00  0.00    +0.220 C 
ATOM     17  O6' 120 A   1      44.689  24.695  48.540  0.00  0.00    -0.411 OA
ATOM     18  H12 120 A   1      43.649  26.780  47.897  0.00  0.00    +0.264 HD
ENDBRANCH   9  11
BRANCH   1  19
ATOM     19  C7  120 A   1      45.880  18.873  53.399  0.00  0.00    +0.229 A 
ATOM     20  N1  120 A   1      46.950  19.320  53.981  0.00  0.00    -0.273 N 
ATOM     21  N2  120 A   1      45.457  17.660  53.636  0.00  0.00    -0.273 N 
ATOM     22  H4  120 A   1      47.466  18.721  54.640  0.00  0.00    +0.318 HD
ATOM     23  H5  120 A   1      47.284  20.274  53.782  0.00  0.00    +0.318 HD
ATOM     24  H6  120 A   1      44.607  17.310  53.171  0.00  0.00    +0.318 HD
ATOM     25  H7  120 A   1      45.975  17.052  54.287  0.00  0.00    +0.318 HD
ENDBRANCH   1  19
TORSDOF 2
