REMARK VINA RESULT:      -3.7      4.916      7.761
REMARK  Name = 6dl2_ligand
REMARK  4 active torsions:
REMARK  status: ('A' for Active; 'I' for Inactive)
REMARK    1  A    between atoms: C1_1  and  C_19
REMARK    2  A    between atoms: C4_4  and  C5_5
REMARK    3  A    between atoms: C6_14  and  C7_20
REMARK    4  A    between atoms: C7_20  and  C8_21
REMARK                            x       y       z     vdW  Elec       q    Type
REMARK                         _______ _______ _______ _____ _____    ______ ____
ROOT
ATOM      1  C1  GUJ A   1      18.809  23.537   0.252  0.00  0.00    +0.137 C 
ATOM      2  C2  GUJ A   1      20.326  25.093   0.087  0.00  0.00    +0.166 C 
ATOM      3  C3  GUJ A   1      19.279  24.926   2.303  0.00  0.00    +0.146 C 
ATOM      4  C4  GUJ A   1      18.426  25.377   4.624  0.00  0.00    -0.002 C 
ATOM      5  C5  GUJ A   1      17.530  25.488   5.819  0.00  0.00    +0.079 C 
ATOM      6  C14 GUJ A   1      20.275  25.404   3.184  0.00  0.00    -0.009 C 
ATOM      7  C16 GUJ A   1      21.391  26.042   0.546  0.00  0.00    +0.288 C 
ATOM      8  C15 GUJ A   1      21.716  25.665   2.871  0.00  0.00    +0.196 C 
ATOM      9  S   GUJ A   1      17.754  24.822   3.118  0.00  0.00    -0.025 S 
ATOM     10  C6  GUJ A   1      19.759  25.642   4.510  0.00  0.00    -0.054 C 
ATOM     11  O   GUJ A   1      22.176  25.418   1.552  0.00  0.00    -0.355 OA
ATOM     12  N1  GUJ A   1      20.230  24.522  -1.082  0.00  0.00    -0.282 NA
ATOM     13  N   GUJ A   1      19.273  23.527  -0.970  0.00  0.00    -0.285 NA
ATOM     14  N2  GUJ A   1      19.433  24.527   0.965  0.00  0.00    -0.171 N 
ATOM     15  C   GUJ A   1      17.781  22.606   0.788  0.00  0.00    +0.154 C 
ENDROOT
BRANCH  10  16
ATOM     16  C7  GUJ A   1      20.647  26.042   5.659  0.00  0.00    +0.094 C 
BRANCH  16  21
ATOM     17  C10 GUJ A   1      21.545  22.613   7.032  0.00  0.00    -0.009 A 
ATOM     18  C11 GUJ A   1      21.475  22.825   8.395  0.00  0.00    -0.013 A 
ATOM     19  C12 GUJ A   1      21.139  24.076   8.877  0.00  0.00    -0.009 A 
ATOM     20  C13 GUJ A   1      20.843  25.106   7.996  0.00  0.00    -0.004 A 
ATOM     21  C8  GUJ A   1      20.912  24.907   6.622  0.00  0.00    -0.039 A 
ATOM     22  C9  GUJ A   1      21.273  23.649   6.151  0.00  0.00    -0.004 A 
ENDBRANCH  16  21
ENDBRANCH  10  16
TORSDOF 2
