REMARK  Name = 5u28_ligand
REMARK  2 active torsions:
REMARK  status: ('A' for Active; 'I' for Inactive)
REMARK    1  A    between atoms: C17_4  and  C16_20
REMARK    2  A    between atoms: C04_11  and  N05_12
REMARK                            x       y       z     vdW  Elec       q    Type
REMARK                         _______ _______ _______ _____ _____    ______ ____
ROOT
ATOM      1  C13 82V A   1     -17.546   2.814   3.997  0.00  0.00    +0.096 C 
ATOM      2  C15 82V A   1     -16.428   1.239   2.506  0.00  0.00    +0.089 C 
ATOM      3  O01 82V A   1     -19.337   4.452   4.100  0.00  0.00    -0.453 OA
ATOM      4  C02 82V A   1     -18.404   3.834   4.612  0.00  0.00    +0.078 C 
ATOM      5  C03 82V A   1     -17.991   4.038   6.035  0.00  0.00    +0.016 C 
ATOM      6  C04 82V A   1     -16.906   3.474   6.554  0.00  0.00    +0.209 C 
ATOM      7  O11 82V A   1     -16.325   2.387   5.923  0.00  0.00    -0.216 OA
ATOM      8  C12 82V A   1     -16.579   2.140   4.623  0.00  0.00    +0.146 C 
ATOM      9  S14 82V A   1     -17.696   2.362   2.333  0.00  0.00    -0.040 S 
ATOM     10  C16 82V A   1     -15.876   1.172   3.738  0.00  0.00    +0.016 C 
ENDROOT
BRANCH  10  11
ATOM     11  C17 82V A   1     -14.769   0.255   4.118  0.00  0.00    -0.046 A 
ATOM     12  C20 82V A   1     -12.632  -1.528   4.844  0.00  0.00    +0.118 A 
ATOM     13  C22 82V A   1     -11.844  -3.752   4.948  0.00  0.00    +0.222 C 
ATOM     14  C26 82V A   1     -14.667  -1.056   3.665  0.00  0.00    +0.009 A 
ATOM     15  C18 82V A   1     -13.741   0.644   4.994  0.00  0.00    -0.030 A 
ATOM     16  C19 82V A   1     -12.688  -0.229   5.350  0.00  0.00    +0.008 A 
ATOM     17  O21 82V A   1     -11.609  -2.363   5.178  0.00  0.00    -0.320 OA
ATOM     18  C23 82V A   1     -12.526  -4.023   3.650  0.00  0.00    +0.222 C 
ATOM     19  O24 82V A   1     -13.659  -3.203   3.455  0.00  0.00    -0.320 OA
ATOM     20  C25 82V A   1     -13.644  -1.954   3.980  0.00  0.00    +0.118 A 
ENDBRANCH  10  11
BRANCH   6  22
ATOM     21  C10 82V A   1     -16.826   4.704   8.805  0.00  0.00    +0.171 C 
ATOM     22  N05 82V A   1     -16.454   3.581   7.904  0.00  0.00    -0.260 N 
ATOM     23  C06 82V A   1     -15.571   2.522   8.546  0.00  0.00    +0.171 C 
ATOM     24  C07 82V A   1     -14.955   2.841   9.935  0.00  0.00    +0.185 C 
ATOM     25  O08 82V A   1     -14.942   4.191  10.219  0.00  0.00    -0.376 OA
ATOM     26  C09 82V A   1     -16.219   4.684  10.210  0.00  0.00    +0.185 C 
ENDBRANCH   6  22
TORSDOF 2
