REMARK VINA RESULT:      -9.1      0.000      0.000
REMARK  Name = 5lle_ligand
REMARK  4 active torsions:
REMARK  status: ('A' for Active; 'I' for Inactive)
REMARK    1  A    between atoms: C5_3  and  S7_4
REMARK    2  A    between atoms: S7_4  and  N10_6
REMARK    3  A    between atoms: C2_14  and  N25_15
REMARK    4  A    between atoms: N25_15  and  C19_16
REMARK                            x       y       z     vdW  Elec       q    Type
REMARK                         _______ _______ _______ _____ _____    ______ ____
ROOT
ATOM      1  F14 V51 A   1      -6.876   3.739  16.688  0.00  0.00    -0.190 F 
ATOM      2  C4  V51 A   1      -6.017   3.405  15.698  0.00  0.00    +0.174 A 
ATOM      3  C5  V51 A   1      -5.467   2.154  15.696  0.00  0.00    +0.158 A 
ATOM      4  C6  V51 A   1      -4.592   1.821  14.639  0.00  0.00    +0.174 A 
ATOM      5  F12 V51 A   1      -4.028   0.610  14.479  0.00  0.00    -0.190 F 
ATOM      6  C1  V51 A   1      -4.217   2.769  13.669  0.00  0.00    +0.177 A 
ATOM      7  F11 V51 A   1      -3.334   2.339  12.737  0.00  0.00    -0.198 F 
ATOM      8  C3  V51 A   1      -5.633   4.351  14.752  0.00  0.00    +0.177 A 
ATOM      9  F13 V51 A   1      -6.176   5.552  14.856  0.00  0.00    -0.198 F 
ATOM     10  C2  V51 A   1      -4.745   4.085  13.710  0.00  0.00    +0.103 A 
ENDROOT
BRANCH   3  11
ATOM     11  S7  V51 A   1      -6.011   0.979  16.950  0.00  0.00    +0.060 S 
ATOM     12  O9  V51 A   1      -7.511   0.749  16.985  0.00  0.00    -0.153 OA
ATOM     13  O8  V51 A   1      -5.380  -0.368  16.550  0.00  0.00    -0.153 OA
BRANCH  11  14
ATOM     14  N10 V51 A   1      -5.513   1.722  18.450  0.00  0.00    -0.263 NA
ATOM     15  H1  V51 A   1      -4.595   1.554  18.811  0.00  0.00    +0.163 HD
ATOM     16  H2  V51 A   1      -6.144   2.316  18.949  0.00  0.00    +0.163 HD
ENDBRANCH  11  14
ENDBRANCH   3  11
BRANCH  10  17
ATOM     17  N25 V51 A   1      -4.423   5.142  12.768  0.00  0.00    -0.319 N 
ATOM     18  H3  V51 A   1      -5.082   5.325  11.997  0.00  0.00    +0.174 HD
BRANCH  17  19
ATOM     19  C19 V51 A   1      -3.212   5.963  12.855  0.00  0.00    +0.046 C 
ATOM     20  C18 V51 A   1      -2.973   6.475  14.303  0.00  0.00    +0.033 C 
ATOM     21  C20 V51 A   1      -3.404   7.170  11.879  0.00  0.00    +0.033 C 
ATOM     22  C24 V51 A   1      -1.917   5.211  12.442  0.00  0.00    +0.033 C 
ATOM     23  C23 V51 A   1      -0.704   6.197  12.466  0.00  0.00    -0.008 C 
ATOM     24  C21 V51 A   1      -0.917   7.411  11.515  0.00  0.00    +0.007 C 
ATOM     25  C15 V51 A   1      -2.191   8.163  11.929  0.00  0.00    -0.008 C 
ATOM     26  C22 V51 A   1      -0.504   6.754  13.893  0.00  0.00    +0.007 C 
ATOM     27  C17 V51 A   1      -1.778   7.473  14.356  0.00  0.00    -0.008 C 
ATOM     28  C16 V51 A   1      -2.000   8.670  13.380  0.00  0.00    +0.007 C 
ENDBRANCH  17  19
ENDBRANCH  10  17
TORSDOF 4
