REMARK VINA RESULT:      -6.4      0.717      1.828
REMARK  Name = 1m1b_ligand
REMARK  3 active torsions:
REMARK  status: ('A' for Active; 'I' for Inactive)
REMARK    1  A    between atoms: C1_1  and  C2_4
REMARK    2  A    between atoms: C2_4  and  C3_5
REMARK    3  A    between atoms: C3_5  and  S_7
REMARK                            x       y       z     vdW  Elec       q    Type
REMARK                         _______ _______ _______ _____ _____    ______ ____
ROOT
ATOM      1  C2  SPV A   1      28.696  69.004  72.970  0.00  0.00    +0.189 C 
ATOM      2  O2  SPV A   1      28.166  70.146  72.753  0.00  0.00    -0.356 OA
ENDROOT
BRANCH   1   3
ATOM      3  C1  SPV A   1      30.174  68.879  72.579  0.00  0.00    +0.126 C 
ATOM      4  O1  SPV A   1      30.905  69.836  73.044  0.00  0.00    -0.546 OA
ATOM      5  O2' SPV A   1      30.622  67.988  71.891  0.00  0.00    -0.546 OA
ENDBRANCH   1   3
BRANCH   1   6
ATOM      6  C3  SPV A   1      27.868  68.077  73.511  0.00  0.00    +0.255 C 
BRANCH   6   7
ATOM      7  S   SPV A   1      28.420  67.543  75.171  0.00  0.00    -0.175 S 
ATOM      8  O1S SPV A   1      27.264  67.093  75.829  0.00  0.00    -0.482 OA
ATOM      9  O2S SPV A   1      29.012  68.707  75.750  0.00  0.00    -0.482 OA
ATOM     10  O3S SPV A   1      29.262  66.450  74.964  0.00  0.00    -0.482 OA
ENDBRANCH   6   7
ENDBRANCH   1   6
TORSDOF 3
