REMARK VINA RESULT:      -6.6      1.721      4.058
REMARK  Name = 1m1b_ligand
REMARK  3 active torsions:
REMARK  status: ('A' for Active; 'I' for Inactive)
REMARK    1  A    between atoms: C1_1  and  C2_4
REMARK    2  A    between atoms: C2_4  and  C3_5
REMARK    3  A    between atoms: C3_5  and  S_7
REMARK                            x       y       z     vdW  Elec       q    Type
REMARK                         _______ _______ _______ _____ _____    ______ ____
ROOT
ATOM      1  C2  SPV A   1      29.419  66.971  74.551  0.00  0.00    +0.189 C 
ATOM      2  O2  SPV A   1      29.917  65.879  74.112  0.00  0.00    -0.356 OA
ENDROOT
BRANCH   1   3
ATOM      3  C1  SPV A   1      27.970  66.879  75.049  0.00  0.00    +0.126 C 
ATOM      4  O1  SPV A   1      27.422  65.735  74.810  0.00  0.00    -0.546 OA
ATOM      5  O2' SPV A   1      27.381  67.786  75.596  0.00  0.00    -0.546 OA
ENDBRANCH   1   3
BRANCH   1   6
ATOM      6  C3  SPV A   1      30.246  68.042  74.508  0.00  0.00    +0.255 C 
BRANCH   6   7
ATOM      7  S   SPV A   1      29.983  69.058  73.011  0.00  0.00    -0.175 S 
ATOM      8  O1S SPV A   1      30.998  70.029  73.026  0.00  0.00    -0.482 OA
ATOM      9  O2S SPV A   1      28.663  69.585  73.155  0.00  0.00    -0.482 OA
ATOM     10  O3S SPV A   1      30.203  68.209  71.925  0.00  0.00    -0.482 OA
ENDBRANCH   6   7
ENDBRANCH   1   6
TORSDOF 3
