REMARK VINA RESULT:      -6.1      1.915      3.771
REMARK  Name = 1m1b_ligand
REMARK  3 active torsions:
REMARK  status: ('A' for Active; 'I' for Inactive)
REMARK    1  A    between atoms: C1_1  and  C2_4
REMARK    2  A    between atoms: C2_4  and  C3_5
REMARK    3  A    between atoms: C3_5  and  S_7
REMARK                            x       y       z     vdW  Elec       q    Type
REMARK                         _______ _______ _______ _____ _____    ______ ____
ROOT
ATOM      1  C2  SPV A   1      29.012  68.669  74.589  0.00  0.00    +0.189 C 
ATOM      2  O2  SPV A   1      28.492  69.420  73.696  0.00  0.00    -0.356 OA
ENDROOT
BRANCH   1   3
ATOM      3  C1  SPV A   1      28.043  68.158  75.664  0.00  0.00    +0.126 C 
ATOM      4  O1  SPV A   1      27.896  68.981  76.648  0.00  0.00    -0.546 OA
ATOM      5  O2' SPV A   1      27.480  67.087  75.617  0.00  0.00    -0.546 OA
ENDBRANCH   1   3
BRANCH   1   6
ATOM      6  C3  SPV A   1      30.340  68.441  74.451  0.00  0.00    +0.255 C 
BRANCH   6   7
ATOM      7  S   SPV A   1      30.693  67.146  73.209  0.00  0.00    -0.175 S 
ATOM      8  O1S SPV A   1      30.405  67.725  71.963  0.00  0.00    -0.482 OA
ATOM      9  O2S SPV A   1      29.839  66.058  73.565  0.00  0.00    -0.482 OA
ATOM     10  O3S SPV A   1      32.067  66.910  73.278  0.00  0.00    -0.482 OA
ENDBRANCH   6   7
ENDBRANCH   1   6
TORSDOF 3
