REMARK VINA RESULT:      -5.5      3.411      7.002
REMARK  Name = 3muz_ligand
REMARK  9 active torsions:
REMARK  status: ('A' for Active; 'I' for Inactive)
REMARK    1  A    between atoms: C1_1  and  S1_12
REMARK    2  A    between atoms: C2_2  and  O2_3
REMARK    3  A    between atoms: C3_4  and  O3_5
REMARK    4  A    between atoms: C4_6  and  O4_7
REMARK    5  A    between atoms: C5_8  and  C6_10
REMARK    6  A    between atoms: C6_10  and  O6_11
REMARK    7  A    between atoms: S1_12  and  C1'_13
REMARK    8  A    between atoms: C1'_13  and  C2'_14
REMARK    9  A    between atoms: C1'_13  and  C3'_15
REMARK                            x       y       z     vdW  Elec       q    Type
REMARK                         _______ _______ _______ _____ _____    ______ ____
ROOT
ATOM      1  C1  IPT A   1      17.689  27.796  76.886  0.00  0.00    +0.207 C 
ATOM      2  C2  IPT A   1      18.285  28.984  76.096  0.00  0.00    +0.184 C 
ATOM      3  C3  IPT A   1      19.745  28.675  75.753  0.00  0.00    +0.177 C 
ATOM      4  C4  IPT A   1      20.526  28.450  77.052  0.00  0.00    +0.176 C 
ATOM      5  C5  IPT A   1      19.853  27.277  77.820  0.00  0.00    +0.176 C 
ATOM      6  O5  IPT A   1      18.457  27.568  78.099  0.00  0.00    -0.355 OA
ENDROOT
BRANCH   2   7
ATOM      7  O2  IPT A   1      17.532  29.184  74.904  0.00  0.00    -0.386 OA
ATOM      8  H3  IPT A   1      18.052  28.918  74.155  0.00  0.00    +0.210 HD
ENDBRANCH   2   7
BRANCH   3   9
ATOM      9  O3  IPT A   1      20.321  29.749  75.027  0.00  0.00    -0.387 OA
ATOM     10  H5  IPT A   1      19.873  29.843  74.195  0.00  0.00    +0.210 HD
ENDBRANCH   3   9
BRANCH   4  11
ATOM     11  O4  IPT A   1      20.546  29.658  77.840  0.00  0.00    -0.387 OA
ATOM     12  H7  IPT A   1      21.093  30.305  77.411  0.00  0.00    +0.210 HD
ENDBRANCH   4  11
BRANCH   5  13
ATOM     13  C6  IPT A   1      20.593  27.019  79.145  0.00  0.00    +0.190 C 
BRANCH  13  14
ATOM     14  O6  IPT A   1      19.776  26.238  80.015  0.00  0.00    -0.392 OA
ATOM     15  H11 IPT A   1      19.408  26.798  80.689  0.00  0.00    +0.209 HD
ENDBRANCH  13  14
ENDBRANCH   5  13
BRANCH   1  16
ATOM     16  S1  IPT A   1      15.958  28.135  77.321  0.00  0.00    -0.124 S 
BRANCH  16  17
ATOM     17  C1' IPT A   1      15.083  27.020  76.170  0.00  0.00    +0.043 C 
ATOM     18  C2' IPT A   1      14.124  26.096  76.921  0.00  0.00    +0.019 C 
ATOM     19  C3' IPT A   1      14.282  27.872  75.171  0.00  0.00    +0.019 C 
ENDBRANCH  16  17
ENDBRANCH   1  16
TORSDOF 7
