REMARK VINA RESULT:      -6.7      1.329      1.502
REMARK  Name = 3muz_ligand
REMARK  9 active torsions:
REMARK  status: ('A' for Active; 'I' for Inactive)
REMARK    1  A    between atoms: C1_1  and  S1_12
REMARK    2  A    between atoms: C2_2  and  O2_3
REMARK    3  A    between atoms: C3_4  and  O3_5
REMARK    4  A    between atoms: C4_6  and  O4_7
REMARK    5  A    between atoms: C5_8  and  C6_10
REMARK    6  A    between atoms: C6_10  and  O6_11
REMARK    7  A    between atoms: S1_12  and  C1'_13
REMARK    8  A    between atoms: C1'_13  and  C2'_14
REMARK    9  A    between atoms: C1'_13  and  C3'_15
REMARK                            x       y       z     vdW  Elec       q    Type
REMARK                         _______ _______ _______ _____ _____    ______ ____
ROOT
ATOM      1  C1  IPT A   1      16.316  28.172  75.486  0.00  0.00    +0.207 C 
ATOM      2  C2  IPT A   1      15.186  28.204  76.540  0.00  0.00    +0.184 C 
ATOM      3  C3  IPT A   1      13.925  27.576  75.941  0.00  0.00    +0.177 C 
ATOM      4  C4  IPT A   1      13.516  28.368  74.695  0.00  0.00    +0.176 C 
ATOM      5  C5  IPT A   1      14.707  28.337  73.695  0.00  0.00    +0.176 C 
ATOM      6  O5  IPT A   1      15.907  28.897  74.294  0.00  0.00    -0.355 OA
ENDROOT
BRANCH   2   7
ATOM      7  O2  IPT A   1      15.596  27.477  77.694  0.00  0.00    -0.386 OA
ATOM      8  H3  IPT A   1      16.188  26.781  77.434  0.00  0.00    +0.210 HD
ENDBRANCH   2   7
BRANCH   3   9
ATOM      9  O3  IPT A   1      12.867  27.591  76.887  0.00  0.00    -0.387 OA
ATOM     10  H5  IPT A   1      12.679  26.702  77.164  0.00  0.00    +0.210 HD
ENDBRANCH   3   9
BRANCH   4  11
ATOM     11  O4  IPT A   1      13.161  29.719  75.054  0.00  0.00    -0.387 OA
ATOM     12  H7  IPT A   1      12.828  30.172  74.288  0.00  0.00    +0.210 HD
ENDBRANCH   4  11
BRANCH   5  13
ATOM     13  C6  IPT A   1      14.353  29.135  72.427  0.00  0.00    +0.190 C 
BRANCH  13  14
ATOM     14  O6  IPT A   1      12.935  29.242  72.299  0.00  0.00    -0.392 OA
ATOM     15  H11 IPT A   1      12.570  29.587  73.105  0.00  0.00    +0.209 HD
ENDBRANCH  13  14
ENDBRANCH   5  13
BRANCH   1  16
ATOM     16  S1  IPT A   1      17.828  28.923  76.160  0.00  0.00    -0.124 S 
BRANCH  16  17
ATOM     17  C1' IPT A   1      19.023  27.562  75.937  0.00  0.00    +0.043 C 
ATOM     18  C2' IPT A   1      20.425  28.102  75.651  0.00  0.00    +0.019 C 
ATOM     19  C3' IPT A   1      19.060  26.721  77.224  0.00  0.00    +0.019 C 
ENDBRANCH  16  17
ENDBRANCH   1  16
TORSDOF 7
