REMARK VINA RESULT:      -6.1      1.523      3.345
REMARK  Name = 3muz_ligand
REMARK  9 active torsions:
REMARK  status: ('A' for Active; 'I' for Inactive)
REMARK    1  A    between atoms: C1_1  and  S1_12
REMARK    2  A    between atoms: C2_2  and  O2_3
REMARK    3  A    between atoms: C3_4  and  O3_5
REMARK    4  A    between atoms: C4_6  and  O4_7
REMARK    5  A    between atoms: C5_8  and  C6_10
REMARK    6  A    between atoms: C6_10  and  O6_11
REMARK    7  A    between atoms: S1_12  and  C1'_13
REMARK    8  A    between atoms: C1'_13  and  C2'_14
REMARK    9  A    between atoms: C1'_13  and  C3'_15
REMARK                            x       y       z     vdW  Elec       q    Type
REMARK                         _______ _______ _______ _____ _____    ______ ____
ROOT
ATOM      1  C1  IPT A   1      14.916  28.749  74.342  0.00  0.00    +0.207 C 
ATOM      2  C2  IPT A   1      13.944  28.892  73.149  0.00  0.00    +0.184 C 
ATOM      3  C3  IPT A   1      12.519  29.066  73.683  0.00  0.00    +0.177 C 
ATOM      4  C4  IPT A   1      12.150  27.843  74.529  0.00  0.00    +0.176 C 
ATOM      5  C5  IPT A   1      13.187  27.727  75.682  0.00  0.00    +0.176 C 
ATOM      6  O5  IPT A   1      14.538  27.607  75.159  0.00  0.00    -0.355 OA
ENDROOT
BRANCH   2   7
ATOM      7  O2  IPT A   1      14.317  30.024  72.369  0.00  0.00    -0.386 OA
ATOM      8  H3  IPT A   1      14.017  30.816  72.799  0.00  0.00    +0.210 HD
ENDBRANCH   2   7
BRANCH   3   9
ATOM      9  O3  IPT A   1      11.601  29.200  72.609  0.00  0.00    -0.387 OA
ATOM     10  H5  IPT A   1      12.041  29.000  71.791  0.00  0.00    +0.210 HD
ENDBRANCH   3   9
BRANCH   4  11
ATOM     11  O4  IPT A   1      12.131  26.655  73.711  0.00  0.00    -0.387 OA
ATOM     12  H7  IPT A   1      11.259  26.278  73.724  0.00  0.00    +0.210 HD
ENDBRANCH   4  11
BRANCH   5  13
ATOM     13  C6  IPT A   1      12.870  26.500  76.556  0.00  0.00    +0.190 C 
BRANCH  13  14
ATOM     14  O6  IPT A   1      11.477  26.468  76.862  0.00  0.00    -0.392 OA
ATOM     15  H11 IPT A   1      11.064  25.759  76.382  0.00  0.00    +0.209 HD
ENDBRANCH  13  14
ENDBRANCH   5  13
BRANCH   1  16
ATOM     16  S1  IPT A   1      16.617  28.528  73.745  0.00  0.00    -0.124 S 
BRANCH  16  17
ATOM     17  C1' IPT A   1      17.555  28.650  75.306  0.00  0.00    +0.043 C 
ATOM     18  C2' IPT A   1      17.552  27.317  76.057  0.00  0.00    +0.019 C 
ATOM     19  C3' IPT A   1      19.006  29.041  74.981  0.00  0.00    +0.019 C 
ENDBRANCH  16  17
ENDBRANCH   1  16
TORSDOF 7
