REMARK VINA RESULT:     -19.2      0.000      0.000
REMARK  Name = 3pju_ligand
REMARK  4 active torsions:
REMARK  status: ('A' for Active; 'I' for Inactive)
REMARK    1  A    between atoms: C2'_10  and  O2'_11
REMARK    2  A    between atoms: C1'_12  and  N9_13
REMARK    3  A    between atoms: C2A_33  and  O2A_34
REMARK    4  A    between atoms: C1A_35  and  N91_36
REMARK                            x       y       z     vdW  Elec       q    Type
REMARK                         _______ _______ _______ _____ _____    ______ ____
ROOT
ATOM      1  P1  C2E A   1      29.207  33.478   4.683  0.00  0.00    +0.256 P 
ATOM      2  O2P C2E A   1      28.925  32.838   6.025  0.00  0.00    -0.618 OA
ATOM      3  O1P C2E A   1      28.625  32.589   3.603  0.00  0.00    -0.618 OA
ATOM      4  O5' C2E A   1      28.412  34.853   4.701  0.00  0.00    -0.251 OA
ATOM      5  C5' C2E A   1      28.163  35.515   3.502  0.00  0.00    +0.242 C 
ATOM      6  C4' C2E A   1      29.174  36.550   3.086  0.00  0.00    +0.190 C 
ATOM      7  O4' C2E A   1      28.825  37.039   1.818  0.00  0.00    -0.336 OA
ATOM      8  C3' C2E A   1      29.211  37.788   3.951  0.00  0.00    +0.225 C 
ATOM      9  O3' C2E A   1      30.381  38.507   3.719  0.00  0.00    -0.245 OA
ATOM     10  C2' C2E A   1      28.106  38.503   3.454  0.00  0.00    +0.212 C 
ATOM     11  C1' C2E A   1      28.059  38.191   2.037  0.00  0.00    +0.299 C 
ATOM     12  P11 C2E A   1      31.464  38.551   4.860  0.00  0.00    +0.256 P 
ATOM     13  O21 C2E A   1      30.794  38.566   6.216  0.00  0.00    -0.618 OA
ATOM     14  O11 C2E A   1      32.421  39.711   4.748  0.00  0.00    -0.618 OA
ATOM     15  O5A C2E A   1      32.427  37.350   4.712  0.00  0.00    -0.251 OA
ATOM     16  C5A C2E A   1      32.001  36.334   5.494  0.00  0.00    +0.242 C 
ATOM     17  C4A C2E A   1      32.542  35.078   4.996  0.00  0.00    +0.190 C 
ATOM     18  O4A C2E A   1      33.803  34.918   5.716  0.00  0.00    -0.336 OA
ATOM     19  C3A C2E A   1      31.550  34.078   5.457  0.00  0.00    +0.225 C 
ATOM     20  O3A C2E A   1      30.761  33.544   4.432  0.00  0.00    -0.245 OA
ATOM     21  C2A C2E A   1      32.334  33.164   6.304  0.00  0.00    +0.212 C 
ATOM     22  C1A C2E A   1      33.556  33.983   6.720  0.00  0.00    +0.299 C 
ENDROOT
BRANCH  11  23
ATOM     23  N9  C2E A   1      26.643  38.031   1.361  0.00  0.00    -0.210 N 
ATOM     24  C8  C2E A   1      25.509  37.737   2.032  0.00  0.00    +0.214 C 
ATOM     25  N7  C2E A   1      24.523  37.617   1.130  0.00  0.00    -0.324 NA
ATOM     26  C5  C2E A   1      25.047  37.819  -0.103  0.00  0.00    +0.093 C 
ATOM     27  C6  C2E A   1      24.482  37.812  -1.380  0.00  0.00    +0.213 C 
ATOM     28  O6  C2E A   1      23.123  37.583  -1.559  0.00  0.00    -0.409 OA
ATOM     29  N1  C2E A   1      25.288  38.072  -2.431  0.00  0.00    -0.184 N 
ATOM     30  C2  C2E A   1      26.602  38.320  -2.270  0.00  0.00    +0.234 C 
ATOM     31  N2  C2E A   1      27.395  38.575  -3.437  0.00  0.00    -0.281 N 
ATOM     32  N3  C2E A   1      27.176  38.325  -1.050  0.00  0.00    -0.277 NA
ATOM     33  C4  C2E A   1      26.420  38.087   0.039  0.00  0.00    +0.116 C 
ATOM     34  H9  C2E A   1      24.899  38.080  -3.353  0.00  0.00    +0.252 HD
ATOM     35  H10 C2E A   1      28.402  38.768  -3.342  0.00  0.00    +0.190 HD
ATOM     36  H11 C2E A   1      26.957  38.565  -4.369  0.00  0.00    +0.190 HD
ENDBRANCH  11  23
BRANCH  22  37
ATOM     37  N91 C2E A   1      33.501  34.490   8.227  0.00  0.00    -0.210 N 
ATOM     38  C81 C2E A   1      32.501  35.214   8.758  0.00  0.00    +0.214 C 
ATOM     39  N71 C2E A   1      32.644  35.278  10.094  0.00  0.00    -0.324 NA
ATOM     40  C51 C2E A   1      33.750  34.574  10.420  0.00  0.00    +0.093 C 
ATOM     41  C61 C2E A   1      34.398  34.288  11.623  0.00  0.00    +0.213 C 
ATOM     42  O61 C2E A   1      33.875  34.737  12.816  0.00  0.00    -0.409 OA
ATOM     43  N11 C2E A   1      35.515  33.526  11.600  0.00  0.00    -0.184 N 
ATOM     44  C21 C2E A   1      36.021  33.043  10.458  0.00  0.00    +0.234 C 
ATOM     45  N21 C2E A   1      37.241  32.299  10.465  0.00  0.00    -0.281 N 
ATOM     46  N31 C2E A   1      35.403  33.313   9.295  0.00  0.00    -0.277 NA
ATOM     47  C41 C2E A   1      34.283  34.064   9.233  0.00  0.00    +0.116 C 
ATOM     48  H20 C2E A   1      35.977  33.316  12.461  0.00  0.00    +0.252 HD
ATOM     49  H21 C2E A   1      37.625  31.931   9.583  0.00  0.00    +0.190 HD
ATOM     50  H22 C2E A   1      37.737  32.133  11.353  0.00  0.00    +0.190 HD
ENDBRANCH  22  37
BRANCH  10  51
ATOM     51  O2' C2E A   1      28.142  39.921   3.666  0.00  0.00    -0.383 OA
ATOM     52  H6  C2E A   1      27.633  40.353   2.989  0.00  0.00    +0.210 HD
ENDBRANCH  10  51
BRANCH  21  53
ATOM     53  O2A C2E A   1      32.651  32.026   5.633  0.00  0.00    -0.383 OA
ATOM     54  H17 C2E A   1      32.901  32.245   4.744  0.00  0.00    +0.210 HD
ENDBRANCH  21  53
TORSDOF 4
