REMARK VINA RESULT:      -6.7      1.351      2.424
REMARK  Name = 4lm3_ligand
REMARK  2 active torsions:
REMARK  status: ('A' for Active; 'I' for Inactive)
REMARK    1  A    between atoms: C3_3  and  C11_11
REMARK    2  A    between atoms: C11_11  and  C12_12
REMARK                            x       y       z     vdW  Elec       q    Type
REMARK                         _______ _______ _______ _____ _____    ______ ____
ROOT
ATOM      1  C1  9ZE A   1       4.359  13.632  44.187  0.00  0.00    -0.007 A 
ATOM      2  C2  9ZE A   1       3.967  13.773  42.755  0.00  0.00    +0.018 A 
ATOM      3  C3  9ZE A   1       4.908  12.506  44.625  0.00  0.00    +0.012 A 
ATOM      4  C4  9ZE A   1       4.173  12.760  41.923  0.00  0.00    +0.126 A 
ATOM      5  C5  9ZE A   1       5.143  11.364  43.684  0.00  0.00    +0.033 A 
ATOM      6  C6  9ZE A   1       4.794  11.488  42.415  0.00  0.00    +0.126 A 
ATOM      7  O7  9ZE A   1       4.093  12.953  40.608  0.00  0.00    -0.315 OA
ATOM      8  C8  9ZE A   1       4.167  11.841  39.679  0.00  0.00    +0.224 C 
ATOM      9  O9  9ZE A   1       5.034  10.498  41.547  0.00  0.00    -0.318 OA
ATOM     10  C10 9ZE A   1       5.200  10.801  40.133  0.00  0.00    +0.223 C 
ENDROOT
BRANCH   3  11
ATOM     11  C11 9ZE A   1       4.880  12.267  46.093  0.00  0.00    +0.119 C 
ATOM     12  C12 9ZE A   1       3.552  12.287  46.817  0.00  0.00    +0.143 C 
ATOM     13  O13 9ZE A   1       5.926  12.067  46.707  0.00  0.00    -0.384 OA
ENDBRANCH   3  11
TORSDOF 1
