REMARK VINA RESULT:     -10.6      0.000      0.000
REMARK  Name = 4x6m_ligand
REMARK  9 active torsions:
REMARK  status: ('A' for Active; 'I' for Inactive)
REMARK    1  A    between atoms: C22_6  and  C27_12
REMARK    2  A    between atoms: C11_9  and  C8_21
REMARK    3  A    between atoms: C27_12  and  C3_16
REMARK    4  A    between atoms: C1_14  and  N2_15
REMARK    5  A    between atoms: C1_14  and  C30_32
REMARK    6  A    between atoms: C3_16  and  N4_17
REMARK    7  A    between atoms: C3_16  and  C5_18
REMARK    8  A    between atoms: C31_33  and  C37_37
REMARK    9  A    between atoms: C37_37  and  N38_38
REMARK                            x       y       z     vdW  Elec       q    Type
REMARK                         _______ _______ _______ _____ _____    ______ ____
ROOT
ATOM      1  C3  3Y3 A   1      40.670 -19.987  28.094  0.00  0.00    +0.211 C 
ENDROOT
BRANCH   1   2
ATOM      2  C5  3Y3 A   1      41.427 -19.974  26.804  0.00  0.00    +0.143 C 
ATOM      3  N6  3Y3 A   1      42.767 -20.336  26.711  0.00  0.00    -0.245 N 
ATOM      4  C7  3Y3 A   1      43.116 -20.123  25.406  0.00  0.00    +0.145 C 
ATOM      5  C8  3Y3 A   1      41.995 -19.663  24.768  0.00  0.00    +0.025 C 
ATOM      6  N9  3Y3 A   1      40.941 -19.577  25.651  0.00  0.00    -0.325 NA
ATOM      7 CL   3Y3 A   1      44.707 -20.403  24.855  0.00  0.00    -0.044 Cl
ATOM      8  H14 3Y3 A   1      43.369 -20.691  27.467  0.00  0.00    +0.239 HD
BRANCH   5  13
ATOM      9  C13 3Y3 A   1      42.715 -18.622  21.227  0.00  0.00    -0.006 A 
ATOM     10  C16 3Y3 A   1      40.330 -18.804  21.513  0.00  0.00    +0.076 A 
ATOM     11  C15 3Y3 A   1      41.436 -18.558  20.676  0.00  0.00    +0.030 A 
ATOM     12  C19 3Y3 A   1      40.842 -18.374  19.354  0.00  0.00    +0.106 C 
ATOM     13  C11 3Y3 A   1      41.784 -19.228  23.375  0.00  0.00    -0.040 A 
ATOM     14  C12 3Y3 A   1      40.493 -19.119  22.859  0.00  0.00    +0.012 A 
ATOM     15  C14 3Y3 A   1      42.884 -18.967  22.554  0.00  0.00    -0.022 A 
ATOM     16  N17 3Y3 A   1      39.219 -18.753  20.730  0.00  0.00    -0.236 N 
ATOM     17  N18 3Y3 A   1      39.519 -18.503  19.412  0.00  0.00    -0.218 NA
ATOM     18  N20 3Y3 A   1      41.479 -18.062  18.213  0.00  0.00    -0.332 N 
ATOM     19  H16 3Y3 A   1      38.261 -18.886  21.084  0.00  0.00    +0.233 HD
ATOM     20  H17 3Y3 A   1      40.947 -17.959  17.338  0.00  0.00    +0.170 HD
ATOM     21  H18 3Y3 A   1      42.500 -17.926  18.215  0.00  0.00    +0.170 HD
ENDBRANCH   5  13
ENDBRANCH   1   2
BRANCH   1  23
ATOM     22  N2  3Y3 A   1      38.498 -17.393  29.382  0.00  0.00    -0.263 N 
ATOM     23  N4  3Y3 A   1      39.752 -18.864  28.165  0.00  0.00    -0.251 N 
ATOM     24  C28 3Y3 A   1      39.364 -18.420  29.390  0.00  0.00    +0.262 C 
ATOM     25  O29 3Y3 A   1      39.828 -18.872  30.434  0.00  0.00    -0.401 OA
ATOM     26  H11 3Y3 A   1      38.668 -16.617  29.989  0.00  0.00    +0.187 HD
ATOM     27  H13 3Y3 A   1      39.412 -18.428  27.332  0.00  0.00    +0.188 HD
BRANCH  22  28
ATOM     28  C1  3Y3 A   1      37.326 -17.366  28.525  0.00  0.00    +0.196 C 
BRANCH  28  31
ATOM     29  C34 3Y3 A   1      35.030 -14.437  29.132  0.00  0.00    +0.026 A 
ATOM     30  C33 3Y3 A   1      35.627 -13.425  28.416  0.00  0.00    -0.007 A 
ATOM     31  C30 3Y3 A   1      36.706 -16.003  28.427  0.00  0.00    -0.014 A 
ATOM     32  C31 3Y3 A   1      37.334 -14.979  27.685  0.00  0.00    +0.005 A 
ATOM     33  C32 3Y3 A   1      36.784 -13.699  27.702  0.00  0.00    -0.007 A 
ATOM     34  C35 3Y3 A   1      35.546 -15.711  29.137  0.00  0.00    +0.003 A 
ATOM     35 CL1  3Y3 A   1      33.625 -14.096  30.101  0.00  0.00    -0.079 Cl
BRANCH  32  36
ATOM     36  C37 3Y3 A   1      38.592 -15.197  26.864  0.00  0.00    +0.189 C 
BRANCH  36  37
ATOM     37  N38 3Y3 A   1      38.372 -15.097  25.399  0.00  0.00    +0.230 N 
ATOM     38  H25 3Y3 A   1      38.688 -15.944  24.954  0.00  0.00    +0.201 HD
ATOM     39  H26 3Y3 A   1      38.889 -14.312  25.035  0.00  0.00    +0.201 HD
ATOM     40  H27 3Y3 A   1      37.389 -14.966  25.215  0.00  0.00    +0.201 HD
ENDBRANCH  36  37
ENDBRANCH  32  36
ENDBRANCH  28  31
ENDBRANCH  22  28
ENDBRANCH   1  23
BRANCH   1  41
ATOM     41  C27 3Y3 A   1      39.953 -21.329  28.325  0.00  0.00    +0.115 C 
BRANCH  41  43
ATOM     42  C21 3Y3 A   1      40.272 -23.512  29.529  0.00  0.00    -0.004 A 
ATOM     43  C22 3Y3 A   1      40.770 -22.266  29.183  0.00  0.00    -0.038 A 
ATOM     44  C23 3Y3 A   1      42.100 -21.986  29.476  0.00  0.00    -0.004 A 
ATOM     45  C24 3Y3 A   1      42.928 -22.952  30.018  0.00  0.00    -0.009 A 
ATOM     46  C25 3Y3 A   1      42.434 -24.202  30.304  0.00  0.00    -0.013 A 
ATOM     47  C26 3Y3 A   1      41.103 -24.479  30.073  0.00  0.00    -0.009 A 
ENDBRANCH  41  43
ENDBRANCH   1  41
TORSDOF 9
